<?xml version="1.0" encoding="UTF-8"?>

<!-- generated on 11/18/25 16:42:45 by Eclipse SUMO netedit Version 1.8.0
<configuration xmlns:xsi="http://www.w3.org/2001/XMLSchema-instance" xsi:noNamespaceSchemaLocation="http://sumo.dlr.de/xsd/netconvertConfiguration.xsd">

    <output>
        <output-file value="E:\Real-Time-Traffic-Simulation-with-Java-WiSe-25-26\test.net.xml"/>
    </output>

    <processing>
        <offset.disable-normalization value="true"/>
    </processing>

    <junctions>
        <no-turnarounds value="true"/>
    </junctions>

    <netedit>
        <route-files value="E:\Real-Time-Traffic-Simulation-with-Java-WiSe-25-26\test.rou.xml"/>
    </netedit>

    <report>
        <aggregate-warnings value="5"/>
    </report>

</configuration>
-->

<routes xmlns:xsi="http://www.w3.org/2001/XMLSchema-instance" xsi:noNamespaceSchemaLocation="http://sumo.dlr.de/xsd/routes_file.xsd">
    <trip id="vehicle_0" depart="0.00" from="gneE0" to="gneE3"/>
    <trip id="vehicle_1" depart="0.00" from="-gneE3" to="-gneE0"/>
</routes>
