<?xml version="1.0" encoding="UTF-8"?>

<!-- generated on 11/18/25 16:43:40 by Eclipse SUMO GUI Version 1.8.0
-->

<configuration xmlns:xsi="http://www.w3.org/2001/XMLSchema-instance" xsi:noNamespaceSchemaLocation="http://sumo.dlr.de/xsd/sumoConfiguration.xsd">

    <input>
        <net-file value="E:\Real-Time-Traffic-Simulation-with-Java-WiSe-25-26\test.net.xml"/>
        <route-files value="E:\Real-Time-Traffic-Simulation-with-Java-WiSe-25-26\test.rou.xml"/>
    </input>

</configuration>
