<?xml version="1.0" encoding="UTF-8"?>

<!-- generated on 2025-11-15 22:14:27 by Eclipse SUMO netedit Version 1.24.0
<neteditConfiguration xmlns:xsi="http://www.w3.org/2001/XMLSchema-instance" xsi:noNamespaceSchemaLocation="http://sumo.dlr.de/xsd/neteditConfiguration.xsd">

    <input>
        <sumocfg-file value="E:\Online Downloads\SUMO testing\testing.sumocfg"/>
        <route-files value="E:\Online Downloads\SUMO testing\testing.rou.xml"/>
        <sumo-net-file value="E:\Online Downloads\SUMO testing\testing.net.xml"/>
    </input>

    <output>
        <output-file value="E:\Online Downloads\SUMO testing\testing.net.xml"/>
    </output>

    <processing>
        <offset.disable-normalization value="true"/>
    </processing>

    <junctions>
        <no-turnarounds value="true"/>
    </junctions>

    <netedit>
        <new-network value="false"/>
    </netedit>

</neteditConfiguration>
-->

<net version="1.20" junctionCornerDetail="5" limitTurnSpeed="5.50" xmlns:xsi="http://www.w3.org/2001/XMLSchema-instance" xsi:noNamespaceSchemaLocation="http://sumo.dlr.de/xsd/net_file.xsd">

    <location netOffset="0.00,0.00" convBoundary="0.00,0.00,200.00,0.00" origBoundary="10000000000.00,10000000000.00,-10000000000.00,-10000000000.00" projParameter="!"/>

    <edge id="-E0" from="J2" to="J1" priority="-1">
        <lane id="-E0_0" index="0" speed="13.89" length="200.00" shape="200.00,1.60 0.00,1.60"/>
    </edge>
    <edge id="E0" from="J1" to="J2" priority="-1">
        <lane id="E0_0" index="0" speed="13.89" length="200.00" shape="0.00,-1.60 200.00,-1.60"/>
    </edge>

    <junction id="J1" type="dead_end" x="0.00" y="0.00" incLanes="-E0_0" intLanes="" shape="0.00,0.00 0.00,3.20 0.00,0.00"/>
    <junction id="J2" type="dead_end" x="200.00" y="0.00" incLanes="E0_0" intLanes="" shape="200.00,0.00 200.00,-3.20 200.00,0.00"/>

</net>
