<?xml version="1.0" encoding="UTF-8"?>

<!-- generated on 11/18/25 16:42:28 by Eclipse SUMO netedit Version 1.8.0
<configuration xmlns:xsi="http://www.w3.org/2001/XMLSchema-instance" xsi:noNamespaceSchemaLocation="http://sumo.dlr.de/xsd/netconvertConfiguration.xsd">

    <output>
        <output-file value="E:\Real-Time-Traffic-Simulation-with-Java-WiSe-25-26\test.net.xml"/>
    </output>

    <processing>
        <offset.disable-normalization value="true"/>
    </processing>

    <junctions>
        <no-turnarounds value="true"/>
    </junctions>

    <report>
        <aggregate-warnings value="5"/>
    </report>

</configuration>
-->

<net version="1.6" junctionCornerDetail="5" limitTurnSpeed="5.50" xmlns:xsi="http://www.w3.org/2001/XMLSchema-instance" xsi:noNamespaceSchemaLocation="http://sumo.dlr.de/xsd/net_file.xsd">

    <location netOffset="0.00,0.00" convBoundary="-100.00,-200.00,200.00,0.00" origBoundary="10000000000.00,10000000000.00,-10000000000.00,-10000000000.00" projParameter="!"/>

    <edge id=":gneJ1_0" function="internal">
        <lane id=":gneJ1_0_0" index="0" speed="6.08" length="7.74" shape="201.60,-3.20 201.30,-1.10 200.40,0.40 198.90,1.30 196.80,1.60"/>
    </edge>
    <edge id=":gneJ1_1" function="internal">
        <lane id=":gneJ1_1_0" index="0" speed="3.90" length="2.58" shape="196.80,-1.60 197.50,-1.70 198.00,-2.00 198.30,-2.50 198.40,-3.20"/>
    </edge>

    <edge id="-gneE0" from="gneJ1" to="gneJ0" priority="-1">
        <lane id="-gneE0_0" index="0" speed="13.89" length="296.80" shape="196.80,1.60 -100.00,1.60"/>
    </edge>
    <edge id="-gneE3" from="gneJ4" to="gneJ1" priority="-1">
        <lane id="-gneE3_0" index="0" speed="13.89" length="196.80" shape="201.60,-200.00 201.60,-3.20"/>
    </edge>
    <edge id="gneE0" from="gneJ0" to="gneJ1" priority="-1">
        <lane id="gneE0_0" index="0" speed="13.89" length="296.80" shape="-100.00,-1.60 196.80,-1.60"/>
    </edge>
    <edge id="gneE3" from="gneJ1" to="gneJ4" priority="-1">
        <lane id="gneE3_0" index="0" speed="13.89" length="196.80" shape="198.40,-3.20 198.40,-200.00"/>
    </edge>

    <junction id="gneJ0" type="dead_end" x="-100.00" y="0.00" incLanes="-gneE0_0" intLanes="" shape="-100.00,0.00 -100.00,3.20 -100.00,0.00"/>
    <junction id="gneJ1" type="priority" x="200.00" y="0.00" incLanes="-gneE3_0 gneE0_0" intLanes=":gneJ1_0_0 :gneJ1_1_0" shape="203.20,-3.20 196.80,-3.20 196.80,3.20 200.36,2.49 201.60,1.60 202.49,0.36 203.02,-1.24">
        <request index="0" response="00" foes="00" cont="0"/>
        <request index="1" response="00" foes="00" cont="0"/>
    </junction>
    <junction id="gneJ4" type="dead_end" x="200.00" y="-200.00" incLanes="gneE3_0" intLanes="" shape="200.00,-200.00 196.80,-200.00 200.00,-200.00"/>

    <connection from="-gneE3" to="-gneE0" fromLane="0" toLane="0" via=":gneJ1_0_0" dir="l" state="M"/>
    <connection from="gneE0" to="gneE3" fromLane="0" toLane="0" via=":gneJ1_1_0" dir="r" state="M"/>

    <connection from=":gneJ1_0" to="-gneE0" fromLane="0" toLane="0" dir="l" state="M"/>
    <connection from=":gneJ1_1" to="gneE3" fromLane="0" toLane="0" dir="r" state="M"/>

</net>
